Circuit: * Y:\code\potencia-lab\lab_2022-01-22.asc

Direct Newton iteration for .op point succeeded.

Date: Fri Jan 21 15:51:38 2022
Total elapsed time: 0.102 seconds.

tnom = 27
temp = 27
method = modified trap
totiter = 2101
traniter = 2098
tranpoints = 1050
accept = 1049
rejected = 1
matrix size = 11
fillins = 2
solver = Normal
Matrix Compiler1: 494 bytes object code size  0.2/0.2/[0.1]
Matrix Compiler2: 759 bytes object code size  0.2/0.2/[0.2]

