Circuit: * Y:\code\potencia-lab\lab-1\circuito1.asc

.OP point found by inspection.

Date: Fri Feb 18 15:30:36 2022
Total elapsed time: 0.093 seconds.

tnom = 27
temp = 27
method = modified trap
totiter = 2090
traniter = 2090
tranpoints = 1046
accept = 1045
rejected = 1
matrix size = 3
fillins = 0
solver = Normal
Matrix Compiler1:       3 opcodes  0.1/[0.0]/0.1
Matrix Compiler2: 175 bytes object code size  0.1/0.1/[0.1]

