Circuit: * Y:\code\potencia-lab\lab-1\circuito2.asc

.OP point found by inspection.

Date: Fri Nov 26 17:42:57 2021
Total elapsed time: 0.042 seconds.

tnom = 27
temp = 27
method = modified trap
totiter = 2096
traniter = 2096
tranpoints = 1049
accept = 1048
rejected = 1
matrix size = 3
fillins = 0
solver = Normal
Matrix Compiler1: 50 bytes object code size  0.0/0.0/[0.0]
Matrix Compiler2: 175 bytes object code size  0.0/0.0/[0.0]

