Circuit: * Y:\code\potencia-lab\lab-1\Draft3.asc

R1: both pins shorted together -- ignoring.
Direct Newton iteration failed to find .op point.  (Use ".option noopiter" to skip.)
Starting Gmin stepping
Gmin = 10
Gmin = 1.07374
Gmin = 0.115292
Gmin = 0.0123794
Gmin = 0.00132923
Gmin = 0.000142725
Gmin = 1.5325e-005
Gmin = 1.6455e-006
Gmin = 1.76685e-007
Gmin = 1.89714e-008
Gmin = 2.03704e-009
Gmin = 2.18725e-010
Gmin = 2.34854e-011
Gmin = 2.52173e-012
Gmin = 2.70769e-013
Gmin = 0
Gmin stepping succeeded in finding the operating point.


Date: Tue Feb 01 01:43:41 2022
Total elapsed time: 0.175 seconds.

tnom = 27
temp = 27
method = modified trap
totiter = 24882
traniter = 24099
tranpoints = 3711
accept = 2857
rejected = 854
matrix size = 7
fillins = 0
solver = Normal
Matrix Compiler1: 214 bytes object code size  0.1/0.1/[0.1]
Matrix Compiler2: 415 bytes object code size  0.0/0.1/[0.0]

