Circuit: * Y:\code\potencia-lab\lab-1\Draft2.asc

.OP point found by inspection.

Date: Mon Jan 31 22:31:19 2022
Total elapsed time: 0.077 seconds.

tnom = 27
temp = 27
method = modified trap
totiter = 4866
traniter = 4866
tranpoints = 1292
accept = 1222
rejected = 70
matrix size = 8
fillins = 10
solver = Normal
Matrix Compiler1: 1.04 KB object code size  0.2/0.1/[0.1]
Matrix Compiler2: 826 bytes object code size  0.1/0.1/[0.1]

