Circuit: * Y:\code\potencia-lab\lab-1\Draft1.asc

.OP point found by inspection.

Date: Fri Nov 26 17:27:28 2021
Total elapsed time: 0.052 seconds.

tnom = 27
temp = 27
method = modified trap
totiter = 2090
traniter = 2090
tranpoints = 1046
accept = 1045
rejected = 1
matrix size = 3
fillins = 0
solver = Normal
Matrix Compiler1: 50 bytes object code size  0.0/0.0/[0.0]
Matrix Compiler2: off  [0.0]/0.1/0.0

