Circuit: * C:\Users\user\Desktop\EDP_lab_tiristor_circuito1.asc

Direct Newton iteration for .op point succeeded.

Date: Fri Feb 11 16:02:12 2022
Total elapsed time: 0.116 seconds.

tnom = 27
temp = 27
method = modified trap
totiter = 5066
traniter = 5057
tranpoints = 2119
accept = 1855
rejected = 264
matrix size = 31
fillins = 18
solver = Normal
Matrix Compiler1: 1.72 KB object code size  0.9/0.4/[0.2]
Matrix Compiler2: 2.32 KB object code size  0.4/0.6/[0.3]

