Circuit: * C:\Users\user\Desktop\tiristor.asc

.OP point found by inspection.

Date: Fri Feb 11 15:16:16 2022
Total elapsed time: 0.167 seconds.

tnom = 27
temp = 27
method = modified trap
totiter = 5082
traniter = 5082
tranpoints = 2507
accept = 2205
rejected = 302
matrix size = 30
fillins = 10
solver = Normal
Matrix Compiler1: 1.19 KB object code size  0.6/0.3/[0.2]
Matrix Compiler2: 2.06 KB object code size  0.3/0.5/[0.2]

